Version 4
SHEET 1 1604 888
WIRE 240 -160 -512 -160
WIRE 1472 -160 656 -160
WIRE 656 -128 656 -160
WIRE -512 -96 -512 -160
WIRE 1200 0 1120 0
WIRE -656 32 -736 32
WIRE -512 32 -512 -32
WIRE -512 32 -576 32
WIRE -432 32 -512 32
WIRE -224 32 -352 32
WIRE -160 32 -224 32
WIRE 32 32 -128 32
WIRE 1472 32 1472 -160
WIRE 1472 32 1344 32
WIRE 1536 32 1472 32
WIRE -224 64 -224 32
WIRE 240 64 240 -160
WIRE 240 64 176 64
WIRE 400 64 240 64
WIRE 656 64 656 -64
WIRE 656 64 480 64
WIRE 864 64 656 64
WIRE 1040 64 944 64
WIRE 1200 64 1040 64
WIRE -160 96 -160 32
WIRE 32 96 -160 96
WIRE -736 128 -736 32
WIRE -736 128 -912 128
WIRE 1040 128 1040 64
WIRE -736 224 -736 128
WIRE -656 224 -736 224
WIRE -512 224 -576 224
WIRE -128 272 -128 32
WIRE -128 272 -272 272
WIRE -64 272 -128 272
WIRE 240 272 240 64
WIRE 240 272 16 272
WIRE -352 368 -352 272
WIRE 816 368 -352 368
WIRE 1120 368 1120 0
WIRE 1120 368 896 368
WIRE 1280 368 1120 368
WIRE 1472 368 1472 32
WIRE 1472 368 1360 368
WIRE -912 416 -912 128
WIRE -144 560 -272 560
WIRE 160 592 0 592
WIRE -352 624 -352 368
WIRE -352 624 -432 624
WIRE -144 624 -352 624
WIRE 160 672 160 592
WIRE -272 736 -272 560
WIRE -272 736 -352 736
WIRE 160 736 -272 736
FLAG -880 -16 Vcc
FLAG -880 64 0
FLAG 64 -16 Vcc
FLAG -112 512 Vcc
FLAG 1232 -48 Vcc
FLAG -112 672 0
FLAG 64 144 0
FLAG 1232 112 0
FLAG -912 496 0
FLAG -944 752 Vcm
FLAG -944 832 0
FLAG 1040 192 0
FLAG -224 128 0
FLAG -512 224 Vcc
FLAG -432 624 Vcm
FLAG -432 736 Vin
FLAG 1536 32 EKG
FLAG 160 592 Vref
SYMBOL Opamps\\LT6011 64 64 R0
SYMATTR InstName U1
SYMBOL Opamps\\LT6011 1232 32 R0
SYMATTR InstName U2
SYMBOL Opamps\\LT6011 -112 592 R0
SYMATTR InstName U3
SYMBOL voltage -912 400 R0
WINDOW 3 24 128 Left 2
WINDOW 123 24 100 Left 2
WINDOW 39 0 0 Left 2
SYMATTR InstName Vin
SYMATTR Value 2.5
SYMATTR Value2 AC 0.01
SYMBOL voltage -880 -32 R0
WINDOW 123 0 0 Left 2
WINDOW 39 0 0 Left 2
SYMATTR InstName V2
SYMATTR Value 5V
SYMBOL res -336 16 R90
WINDOW 0 0 56 VBottom 2
WINDOW 3 32 56 VTop 2
SYMATTR InstName R1
SYMATTR Value 365k
SYMBOL res -256 256 R90
WINDOW 0 0 56 VBottom 2
WINDOW 3 32 56 VTop 2
SYMATTR InstName R2
SYMATTR Value 10k
SYMBOL res 32 256 R90
WINDOW 0 0 56 VBottom 2
WINDOW 3 32 56 VTop 2
SYMATTR InstName R3
SYMATTR Value 75k
SYMBOL res 496 48 R90
WINDOW 0 0 56 VBottom 2
WINDOW 3 32 56 VTop 2
SYMATTR InstName R4
SYMATTR Value 33k
SYMBOL res 960 48 R90
WINDOW 0 0 56 VBottom 2
WINDOW 3 32 56 VTop 2
SYMATTR InstName R5
SYMATTR Value 300k
SYMBOL res 912 352 R90
WINDOW 0 0 56 VBottom 2
WINDOW 3 32 56 VTop 2
SYMATTR InstName R6
SYMATTR Value 10k
SYMBOL res 1376 352 R90
WINDOW 0 0 56 VBottom 2
WINDOW 3 32 56 VTop 2
SYMATTR InstName R7
SYMATTR Value 75k
SYMBOL res -336 720 R90
WINDOW 0 0 56 VBottom 2
WINDOW 3 32 56 VTop 2
SYMATTR InstName R8
SYMATTR Value 33k
SYMBOL res -560 16 R90
WINDOW 0 0 56 VBottom 2
WINDOW 3 32 56 VTop 2
SYMATTR InstName R9
SYMATTR Value 27k
SYMBOL res -560 208 R90
WINDOW 0 0 56 VBottom 2
WINDOW 3 32 56 VTop 2
SYMATTR InstName R10
SYMATTR Value 10k
SYMBOL cap -528 -96 R0
SYMATTR InstName C1
SYMATTR Value 0.1µ
SYMBOL cap -240 64 R0
SYMATTR InstName C2
SYMATTR Value 0.1µ
SYMBOL cap 640 -128 R0
SYMATTR InstName C3
SYMATTR Value 0.1µ
SYMBOL cap 1024 128 R0
SYMATTR InstName C4
SYMATTR Value 0.1µ
SYMBOL cap 144 672 R0
SYMATTR InstName C5
SYMATTR Value 1µ
SYMBOL voltage -944 736 R0
WINDOW 123 0 0 Left 2
WINDOW 39 0 0 Left 2
SYMATTR InstName V3
SYMATTR Value 2.5V
TEXT -848 528 Left 2 !.ac dec 100 1 1000
